Circuit: * C:\users\alejopm\My Documents\Personal\CargaElectornica\simul\lowside.asc

Direct Newton iteration for .op point succeeded.

Date: Sat Jul 25 19:01:12 2020
Total elapsed time: 0.268 seconds.

tnom = 27
temp = 27
method = modified trap
totiter = 3024
traniter = 2983
tranpoints = 1153
accept = 1109
rejected = 44
matrix size = 50
fillins = 56
solver = Normal
Matrix Compiler1: 5.08 KB object code size  1.8/0.8/[0.5]
Matrix Compiler2: 4.91 KB object code size  1.2/1.1/[0.7]

